#!/sbin/sh

# Magisk Module Installer - update-binary
# For Magisk CA Installer by Mr.Kernel

OUTFD=$2
ZIPFILE=$3

# Simple ui_print wrapper
ui_print() {
  echo "$1"
}

# Mount data if needed
mount /data >/dev/null 2>&1

# Load Magisk's internal helper functions
if [ -f /data/adb/magisk/util_functions.sh ]; then
  # For Magisk v20.4+
  . /data/adb/magisk/util_functions.sh
  ui_print "✓ Magisk functions loaded"
elif [ -f /sbin/.magisk/util_functions.sh ]; then
  # For older Magisk versions
  . /sbin/.magisk/util_functions.sh
  ui_print "✓ Magisk functions loaded (legacy)"
else
  ui_print "✗ Magisk not detected!"
  ui_print "✗ Please install Magisk first"
  exit 1
fi

# Stylish header
ui_print "********************************"
ui_print "   Magisk CA Installer"
ui_print "        by Mr.Kernel"
ui_print "********************************"
ui_print ""

# Create module directory (MODDIR is set by util_functions.sh)
MODPATH=$MODDIR
mkdir -p "$MODPATH"

# Extract module files using Magisk's internal tools
ui_print "- Extracting module files..."
ui_print "  Extracting module.prop..."
extract "$ZIPFILE" "module.prop" "$MODPATH"

ui_print "  Extracting service.sh..."
extract "$ZIPFILE" "service.sh" "$MODPATH"

# Verify extraction
if [ ! -f "$MODPATH/module.prop" ]; then
    ui_print "✗ Failed to extract module.prop!"
    ui_print "✗ ZIP structure may be incorrect"
    exit 1
fi

if [ ! -f "$MODPATH/service.sh" ]; then
    ui_print "⚠ service.sh not found in ZIP"
    ui_print "  Module will be installed but may not work"
fi

# Set permissions
ui_print "- Setting permissions..."
set_perm_recursive "$MODPATH" 0 0 0755 0644
if [ -f "$MODPATH/service.sh" ]; then
    set_perm "$MODPATH/service.sh" 0 0 0755
    ui_print "  ✓ service.sh permissions set"
fi

# Read module info for display
MODNAME=$(grep_prop name "$MODPATH/module.prop")
MODVER=$(grep_prop version "$MODPATH/module.prop")

ui_print ""
ui_print "********************************"
ui_print "   Installation Complete!"
ui_print "********************************"
ui_print "  Module: $MODNAME"
ui_print "  Version: $MODVER"
ui_print "********************************"
ui_print ""
ui_print "  Certificates will be installed"
ui_print "  on next boot automatically"
ui_print "********************************"

exit 0